<?xml version="1.0" encoding="UTF-8"?>

<!-- generated on 2022-05-31 16:33:27 by Eclipse SUMO duarouter Version v1_13_0+0481-58bd772ae33
<configuration xmlns:xsi="http://www.w3.org/2001/XMLSchema-instance" xsi:noNamespaceSchemaLocation="http://sumo.dlr.de/xsd/duarouterConfiguration.xsd">

    <input>
        <net-file value="osm.net.xml"/>
        <route-files value="osm.passenger.trips.xml"/>
    </input>

    <output>
        <output-file value="dtu.rou.xml"/>
    </output>

</configuration>
-->

<routes xmlns:xsi="http://www.w3.org/2001/XMLSchema-instance" xsi:noNamespaceSchemaLocation="http://sumo.dlr.de/xsd/routes_file.xsd">
    <vType id="veh_passenger" vClass="passenger"/>
    <vehicle id="0" type="veh_passenger" depart="0.00" departLane="best">
        <route edges="25676134#3 25676134#4 25676134#5 25676134#6 -25676134#6 -25676134#5 -25676134#4 -25676134#3 -25676134#2 -25676134#1 -25676134#0 48964101#1 48964101#2 48964101#3 48964101#5 48964101#6 48964101#7 48964101#8 48964101#9 48964101#10 48876190#0 48876190#1 48876190#2 4374464#0 4374464#2 4374464#3 4374464#4 4374464#5 4374464#6 4374464#7 4374464#8 590562901 497239793#0 747852325 156161864#0 407994658#0 407994658#1 48963785#0 48963785#1 48963785#2 48963785#3 48963785#4 48963785#5 48963785#6 143882125#0 143882125#1 143882125#2 143882125#3 143882125#4 143882125#5 143882125#6 143882125#7 -143882125#7 -143882125#6 -143882125#5"/>
    </vehicle>
    <vehicle id="1" type="veh_passenger" depart="20.15" departLane="best">
        <route edges="-30116502#4 -30116502#3 -30116502#2 -30116502#1 -30116502#0 -680975521#3 -680975521#2 -680975521#1 -680975521#0 -50639245#1 -50639245#0 -48963784#5 -48963784#4 -48963784#3 -48963784#1 -48963784#0 -48963785#6 -48963785#5 -48963785#4 -48963785#3 -48963785#2 -48963785#1 -48963785#0 407994657#0 407994657#1 497238810#0 -26492401#3"/>
    </vehicle>
    <vehicle id="2" type="veh_passenger" depart="40.30" departLane="best">
        <route edges="3993570#10 3993570#11 3993570#12 3993570#13 3993570#14 3993570#15 3993570#16 3993570#17 -800169394#1 -800169394#0 4374464#2 4374464#3 4374464#4 4374464#5 155979495#0 155979495#1 155979495#2 155979495#3 -25544997#3 -25544997#2 -25544997#1 -25544997#0 -852535085#7 25740264#0 25740264#1"/>
    </vehicle>
    <vehicle id="4" type="veh_passenger" depart="80.61" departLane="best" departSpeed="max">
        <route edges="-750596651 -750596653#0 -689303712#2 -689303712#1 750596646#3 750596646#4 750596646#5 750596646#7 750596646#8 1058351238 1058351233#0 1058351233#1 1058351233#2 1058351233#4 1058351233#5 1058351234#0 1058351234#1 43654884#1 43654884#2 43654884#3 43654884#4 681265641#0 681265641#1 681265641#2 681265641#3 681265641#4 681265637#0 681265637#1 662025868 45105196#0 45105196#1 45105196#2 45105196#3 45105196#4 45105196#5 45105196#6 749266346#8 749266346#9 749266346#0 749266346#1 48876197#0 48876197#3 48876197#4 48876197#5 50639243#0 50639243#1 50639243#2 50639243#3 50639243#4 -48963784#5 -48963784#4 -48963784#3 -48963784#1 -48963784#0 -48963785#6 -48963785#5 -48963785#4 -48963785#3 -48963785#2 -48963785#1 -48963785#0 407994657#0 407994657#1 497238811#0 749266325 590562903#1 -4374464#8 -4374464#7 -4374464#6 -4374464#5 -4374464#4 -4374464#3 -4374464#2 800169394#0 800169394#1 25446124#0 25446124#1 25446124#2 25446124#3 25446124#4 25446124#5 -147359137#3 -147359137#2 -147359137#0"/>
    </vehicle>
    <vehicle id="5" type="veh_passenger" depart="100.76" departLane="best">
        <route edges="-25676160#10 -25676160#9 -25676160#8 -25676160#7 -25676160#6 -25676160#5 -25676160#4 -25676160#3 -25676160#2 -25676160#1 -25676160#0 -25446124#5 -25446124#4 -25446124#3 -25446124#2 -25446124#1 -25446124#0 -800169394#1 -800169394#0 4374464#2 4374464#3 4374464#4 4374464#5 155979495#0 155979495#1 155979495#2 155979495#3 155979495#4 155979495#5 155979495#6 155979495#7 196200605#0 196200605#1 196200605#2 196200605#3 196200605#4 196200605#5"/>
    </vehicle>
    <vehicle id="6" type="veh_passenger" depart="120.91" departLane="best">
        <route edges="-143882125#1 -143882125#0 -48963785#6 -48963785#5 -48963785#4 -48963785#3 -48963785#2 -48963785#1 -48963785#0 407994657#0 407994657#1 497238811#0 749266325 590562903#1 25740233#0 25740233#1 25740233#2 25740233#3 25740233#4 25740233#6 25740233#7 -25740233#7 -25740233#6 -25740233#4 -25740233#3"/>
    </vehicle>
    <vehicle id="7" type="veh_passenger" depart="141.06" departLane="best">
        <route edges="25676160#5 25676160#6 25676160#7 25676160#8 25676160#9 25676160#10 -25676160#10 -25676160#9 -25676160#8 -25676160#7 -25676160#6 -25676160#5 -25676160#4 -25676160#3 -25676160#2 -25676160#1 -25676160#0 -25446124#5 -25446124#4 -25446124#3 -25446124#2 -25446124#1 -25446124#0 -800169394#1 -800169394#0 4374464#2 4374464#3 4374464#4 4374464#5 4374464#6 4374464#7 4374464#8 590562901 497239793#0 747852325 156161864#0 407994658#0 407994658#1 48963785#0 48963785#1 48963785#2 48963785#3 48963785#4 48963785#5 48963785#6 48963784#0 48963784#1 48963784#3 48963784#4 48963784#5 -50639243#4 -50639243#3 -50639243#2 -50639243#1 -50639243#0 662025862#0 662025862#1 662025861#1 662025861#2 662025861#3 662025861#6 749266346#3 749266346#4 749266346#5 749266346#6 662025867#0 662025867#1 662025867#2 662025867#3 662025867#4 662025867#5 -662025868 -681265637#1 -681265637#0 -681265641#4 22983452#0 22983452#1 22983452#3 22983452#4 22983452#6"/>
    </vehicle>
    <vehicle id="8" type="veh_passenger" depart="161.21" departLane="best">
        <route edges="-25676160#12 -25676160#11 -25676160#10 -25676160#9 -25676160#8 -25676160#7 -25676160#6 -25676160#5 -25676160#4 -25676160#3 -25676160#2 -25676160#1 -25676160#0 -25446124#5 -25446124#4 -25446124#3 -25446124#2 -25446124#1 -25446124#0 -800169394#1 -800169394#0 4374464#2 4374464#3 4374464#4 4374464#5 155979495#0 155979495#1 155979495#2 155979495#3 -25544997#3 25545027"/>
    </vehicle>
    <vehicle id="11" type="veh_passenger" depart="221.67" departLane="best">
        <route edges="-48963784#3 48963784#3 48963784#4 48963784#5 -50639243#4 -50639243#3 -50639243#2 -50639243#1 -50639243#0 662025862#0 662025862#1 662025861#1 662025861#2 662025861#3 662025861#6 749266346#3 749266346#4 749266346#5 749266346#6 662025867#0 662025867#1 662025867#2 662025867#3 662025867#4 662025867#5 -662025868 -681265637#1 -681265637#0 -681265641#4 -681265641#3 -681265641#2 -25584729#14 -25584729#12 -25584729#11 -25584729#10 -25584729#9 -25584729#8 -25584729#7 -25584729#6 -25584740#11 -25584740#10 -25584740#9 -25584740#8 -25584740#7 -25584740#6 -25584740#5"/>
    </vehicle>
    <vehicle id="12" type="veh_passenger" depart="241.82" departLane="best">
        <route edges="749266346#1 48876197#0 48876197#3 48876197#4 48876197#5 50639243#0 50639243#1 50639243#2 50639243#3 50639243#4 -48963784#5 -48963784#4 -48963784#3 -48963784#1 -48963784#0 -48963785#6 -48963785#5 -48963785#4 -48963785#3 -48963785#2 -48963785#1 -48963785#0 407994657#0 407994657#1 497238811#0 749266325 590562903#1 -4374464#8 -4374464#7 -4374464#6 -4374464#5 -4374464#4 -4374464#3 -4374464#2 -4374464#1 -48876190#3 -48876190#1 -48876190#0 -48964101#10"/>
    </vehicle>
    <vehicle id="13" type="veh_passenger" depart="261.97" departLane="best">
        <route edges="-196200605#6 -196200605#5 -196200605#4 -196200605#3 -196200605#2 -196200605#1 -196200605#0 -155979495#7 -155979495#6 -155979495#5 -155979495#4 155979495#4 155979495#5 155979495#6 155979495#7 196200605#0 196200605#1 196200605#2 196200605#3 196200605#4 196200605#5 196200605#6 196200605#8 196200605#9 196200605#10 143882122#2 143882122#3 143882122#4 413376755#1 413376755#2 404404211 48963785#5 48963785#6 48963784#0 48963784#1 48963784#3 48963784#4 48963784#5 -50639243#4 -50639243#3 -50639243#2 -50639243#1 -50639243#0 662025862#0 662025862#1 662025861#1 662025861#2 662025861#3 662025861#6 749266346#3 749266346#4 749266346#5 749266346#6 662025867#0 662025867#1 662025867#2 662025867#3 662025867#4 662025867#5 156709771#0 -22983452#15 -22983452#14"/>
    </vehicle>
    <vehicle id="14" type="veh_passenger" depart="282.12" departLane="best">
        <route edges="48963785#6 48963784#0 48963784#1 48963784#3 48963784#4 48963784#5 -50639243#4 -50639243#3 -50639243#2 -50639243#1 -50639243#0 662025862#0 662025862#1 662025861#1 662025861#2 662025861#3 662025861#6 749266346#3 749266346#4 749266346#5 749266346#6 662025867#0 662025867#1 662025867#2 662025867#3 662025867#4 662025867#5 -662025868 -681265637#1 -681265637#0 -681265641#4 -681265641#3 -681265641#2 -25584729#14 -25584729#12 -25584729#11 -25584729#10 -25584729#9 -25584729#8 -25584729#7 -25584729#6 -25584729#5 -25584729#4 -25584729#3 -25584729#2 -25584729#1 -25584729#0 25584729#0 25584729#1 25584729#2 25584729#3 25584729#4"/>
    </vehicle>
    <vehicle id="16" type="veh_passenger" depart="322.43" departLane="best" departSpeed="max">
        <route edges="198889467 3993570#11 3993570#12 3993570#13 3993570#14 3993570#15 3993570#16 3993570#17 -800169394#1 -800169394#0 4374464#2 4374464#3 4374464#4 4374464#5 4374464#6 4374464#7 4374464#8 590562901 497239793#0 747852325 156161864#0 407994658#0 407994658#1 48963785#0 48963785#1 48963785#2 48963785#3 48963785#4 48963785#5 48963785#6 48963784#0 48963784#1 48963784#3 48963784#4 48963784#5 -50639243#4 -50639243#3 -50639243#2 -50639243#1 -50639243#0 662025862#0 662025862#1 662025861#1 662025861#2 662025861#3 662025861#6 749266346#3 749266346#4 749266346#5 749266346#6 662025867#0 662025867#1 662025867#2 662025867#3 662025867#4 662025867#5 753602307#1"/>
    </vehicle>
    <vehicle id="17" type="veh_passenger" depart="342.58" departLane="best">
        <route edges="-5060471#7 -5060471#6 -5060471#5 -5060471#4 -5060471#3 -5060471#2 -5060471#1 -5060471#0 43654884#1 43654884#2 43654884#3 43654884#4 681265641#0 681265641#1 681265641#2 681265641#3 22983452#0 22983476"/>
    </vehicle>
    <vehicle id="19" type="veh_passenger" depart="382.88" departLane="best">
        <route edges="497238810#0 -497238810#0 497238811#0 749266325 590562903#1 -4374464#8 -4374464#7 -4374464#6 -4374464#5 -4374464#4 -4374464#3 -4374464#2 800169394#0 800169394#1 25446124#0 25446124#1 25446124#2 25446124#3 25446124#4"/>
    </vehicle>
    <vehicle id="20" type="veh_passenger" depart="403.03" departLane="best">
        <route edges="30116390#9 30116390#10 30116390#11 30116390#13 1040061566#0 1040061566#1 1062692978 904437455 852535085#1 852535085#2 148156075#1 148156075#2 148156075#3 -148156075#3 -148156075#2"/>
    </vehicle>
    <vehicle id="21" type="veh_passenger" depart="423.18" departLane="best">
        <route edges="-25676160#9 -25676160#8 -25676160#7 -25676160#6 -25676160#5 -25676160#4 -25676160#3 -25676160#2 -25676160#1 -25676160#0 -25446124#5 -25446124#4 -25446124#3 -25446124#2 -25446124#1 -25446124#0 -800169394#1 -800169394#0 4374464#2 4374464#3 4374464#4 4374464#5 4374464#6 4374464#7 4374464#8 590562901 497239793#0 747852325 156161864#0 407994658#0 407994658#1 48963785#0 48963785#1 48963785#2 48963785#3 48963785#4 -404404211 -413376755#2 -413376755#1 -413376755#0"/>
    </vehicle>
    <vehicle id="22" type="veh_passenger" depart="443.34" departLane="best">
        <route edges="-156709771#0 45105196#0 45105196#1 45105196#2 45105196#3 45105196#4 45105196#5 45105196#6 749266346#8 749266346#9 749266346#0 749266346#1 48876197#0 48876197#3 48876197#4 48876197#5 50639243#0 50639243#1 50639243#2 50639243#3 50639243#4 50639245#0 50639245#1 680975521#0 680975521#1 680975521#2 680975521#3 30134969#0 30134969#1 -30116390#13"/>
    </vehicle>
    <vehicle id="23" type="veh_passenger" depart="463.49" departLane="best" departSpeed="max">
        <route edges="-198725744#1 -198725744#0 -5060471#4 -5060471#3 -5060471#2 -5060471#1 -5060471#0 43654884#1 43654884#2 43654884#3 43654884#4 681265641#0 681265641#1 681265641#2 681265641#3 681265641#4 681265637#0 681265637#1 662025868 45105196#0 45105196#1 45105196#2 45105196#3 45105196#4 45105196#5 45105196#6 749266346#8 749266346#9 749266346#0 749266346#1 48876197#0 48876197#3 48876197#4 48876197#5 50639243#0 50639243#1 50639243#2 50639243#3 50639243#4 -48963784#5 -48963784#4 -48963784#3 -48963784#1 -48963784#0 -48963785#6 -48963785#5 -48963785#4 -48963785#3 -48963785#2 -48963785#1 -48963785#0 407994657#0 407994657#1 497238811#0 749266325 590562903#1 -4374464#8 -4374464#7 -4374464#6 -4374464#5 -4374464#4 -4374464#3 -4374464#2 800169394#0 800169394#1 -3993570#17 -3993570#16"/>
    </vehicle>
    <vehicle id="24" type="veh_passenger" depart="483.64" departLane="best">
        <route edges="25584745#6 25584745#9 -25584745#9 -25584745#6 -25584745#2 -25584745#1 25584729#10 25584729#11 25584729#12 25584729#14 681265641#2 681265641#3 681265641#4 681265637#0 681265637#1 662025868 45105196#0 45105196#1 45105196#2 45105196#3 45105196#4 45105196#5 45105196#6 749266346#8 749266346#9 749266346#0 749266346#1 48876197#0 48876197#3 48876197#4 48876197#5 50639243#0 50639243#1 50639243#2 50639243#3 50639243#4 -48963784#5 -48963784#4 -48963784#3 -48963784#1 -48963784#0 -48963785#6 -48963785#5 -48963785#4 -48963785#3 -48963785#2 -48963785#1 -48963785#0 407994657#0 407994657#1 497238810#0 -26492401#3 26492391#4 26492391#5 -540388562#0"/>
    </vehicle>
    <vehicle id="25" type="veh_passenger" depart="503.79" departLane="best" departSpeed="max">
        <route edges="-5060471#10 25584729#0 25584729#1 25584729#2 25584729#3 25584729#4 25584729#5 25584729#6 25584729#7 25584729#8 25584729#9 25584729#10 25584729#11 25584729#12 25584729#14 681265641#2 681265641#3 681265641#4 681265637#0 681265637#1 662025868 45105196#0 45105196#1 45105196#2 45105196#3 45105196#4 45105196#5 45105196#6 749266346#8 749266346#9 749266346#0 749266346#1 48876197#0 48876197#3 48876197#4 48876197#5 50639243#0 50639243#1 50639243#2 50639243#3 50639243#4 -48963784#5 -48963784#4 -48963784#3 -48963784#1 -48963784#0 -48963785#6 -48963785#5 -48963785#4 -48963785#3 -48963785#2 -48963785#1 -48963785#0 407994657#0 407994657#1 497238810#0 497238810#1 497238810#2 497238810#3 -26492396#3 -26492391#1"/>
    </vehicle>
    <vehicle id="26" type="veh_passenger" depart="523.94" departLane="best">
        <route edges="-30116390#6 -30116390#5 -30116390#4 -30116390#3 -30116390#2 -30116390#0 48963784#3 48963784#4 48963784#5 -50639243#4 -50639243#3 -50639243#2 -50639243#1 -50639243#0 662025862#0 662025862#1 662025861#1 662025861#2 662025861#3 662025861#6 749266346#3 749266346#4"/>
    </vehicle>
    <vehicle id="27" type="veh_passenger" depart="544.09" departLane="best">
        <route edges="25676160#3 25676160#4 25676160#5 25676160#6 25676160#7 25676160#8 25676160#9 25676160#10 -25676160#10 -25676160#9 -25676160#8 -25676160#7 -25676160#6 -25676160#5 -25676160#4 -25676160#3 -25676160#2 -25676160#1 -25676160#0 -25446124#5 -25446124#4 -25446124#3 -25446124#2 -25446124#1 -25446124#0 -800169394#1 -800169394#0 4374464#2 4374464#3 4374464#4 4374464#5 4374464#6 4374464#7 4374464#8 590562901 497239793#0 747852325 156161864#0 407994658#0 407994658#1 48963785#0 48963785#1 48963785#2 48963785#3 48963785#4 48963785#5 48963785#6 48963784#0 48963784#1 48963784#3 48963784#4 48963784#5 -50639243#4 -50639243#3 -50639243#2 -50639243#1 -50639243#0 662025862#0 662025862#1 662025861#1 662025861#2 662025861#3 662025861#6 749266346#3 749266346#4 749266346#5 749266346#6 662025867#0 662025867#1 662025867#2 662025867#3 662025867#4 662025867#5 -662025868 -681265637#1 -681265637#0 -681265641#4 -681265641#3 -681265641#2 -681265641#1 -681265641#0 -43654884#4 25584740#0"/>
    </vehicle>
    <vehicle id="28" type="veh_passenger" depart="564.25" departLane="best">
        <route edges="-25584729#7 -25584729#6 25584729#6 25584729#7 25584729#8 25584729#9 25584729#10 25584729#11 25584729#12 25584729#14 681265641#2 681265641#3 681265641#4 681265637#0 681265637#1 662025868 45105196#0 45105196#1 45105196#2 45105196#3 45105196#4 45105196#5 45105196#6 749266346#8 749266346#9 749266346#0 749266346#1 48876197#0 48876197#3 48876197#4 48876197#5 50639243#0 50639243#1 50639243#2 50639243#3 50639243#4 -48963784#5 -48963784#4 -48963784#3 -48963784#1 -48963784#0 -48963785#6 -48963785#5 -48963785#4 -48963785#3 -48963785#2 -48963785#1 -48963785#0 407994657#0 407994657#1 497238811#0 749266325 590562903#1 -4374464#8 -4374464#7 -4374464#6 -4374464#5 -4374464#4 -4374464#3 -4374464#2 800169394#0 800169394#1 -3993570#17 -3993570#16 -3993570#15 -3993570#14 -3993570#13 -3993570#12 -3993570#11 3993570#11 3993570#12"/>
    </vehicle>
    <vehicle id="29" type="veh_passenger" depart="584.40" departLane="best">
        <route edges="852535085#5 852535085#6 -852535085#6 -852535085#5 -852535085#4 -852535085#3 -852535085#2 -852535085#1 -852535085#0 -1062692978 -1040061566#1 -1040061566#0 -30134969#1 -30134969#0 -680975521#3 -680975521#2 -680975521#1 -680975521#0 -50639245#1 -50639245#0 -50639243#4 -50639243#3 -50639243#2 -50639243#1 -50639243#0 662025862#0 662025862#1 662025861#1 662025861#2 662025861#3 662025861#6 749266346#3 749266346#4 749266346#5 749266346#6 662025867#0 662025867#1 662025867#2 662025867#3 662025867#4 662025867#5 -662025868 -681265637#1 -681265637#0 -681265641#4 -681265641#3 -681265641#2 -25584729#14 -25584729#12 -25584729#11 -25584729#10 25584745#1 25584745#2 25584745#6 25584745#9"/>
    </vehicle>
    <vehicle id="30" type="veh_passenger" depart="604.55" departLane="best">
        <route edges="22983452#3 22983452#4 22983452#6 22983452#7 22983452#9 22983452#10 22983452#12 22983452#13 22983452#14 22983452#15 -156709771#0 45105196#0 45105196#1 45105196#2 45105196#3 45105196#4 45105196#5 45105196#6 749266346#8 749266346#9 749266346#0 749266346#1 48876197#0 48876197#3 48876197#4 48876197#5 50639243#0 50639243#1 50639243#2 50639243#3 50639243#4 -48963784#5 -48963784#4 -48963784#3 -48963784#1 -48963784#0 -48963785#6 -48963785#5 -48963785#4 -48963785#3 -48963785#2 -48963785#1 -48963785#0 407994657#0 407994657#1 497238810#0 -26492401#3 -26492391#3 -26492391#2 26492391#2 26492391#3"/>
    </vehicle>
    <vehicle id="31" type="veh_passenger" depart="624.70" departLane="best">
        <route edges="48963785#1 48963785#2 48963785#3 48963785#4 48963785#5 48963785#6 48963784#0 48963784#1 48963784#3 48963784#4 48963784#5 -50639243#4 -50639243#3 -50639243#2 -50639243#1 -50639243#0 662025862#0 662025862#1 662025861#1 662025861#2 662025861#3 662025861#6 749266346#3 749266346#4 749266346#5 749266346#6 662025867#0 662025867#1 662025867#2 662025867#3 45105196#1 45105196#2 45105196#3"/>
    </vehicle>
    <vehicle id="32" type="veh_passenger" depart="644.85" departLane="best">
        <route edges="-4374464#1 -48876190#3 -48876190#1 -48876190#0 147359137#0 147359137#2 147359137#3 25676160#0 25676160#1 25676160#2 25676160#3 25676160#4 25676160#5 25676160#6 25676160#7 25676160#8 25676160#9 25676160#10 25676160#11 25676160#12 -3498237#4 -3498237#3 -3498237#2"/>
    </vehicle>
    <vehicle id="33" type="veh_passenger" depart="665.00" departLane="best">
        <route edges="-25676134#5 -25676134#4 -25676134#3 -25676134#2 -25676134#1 -25676134#0 48964101#1 48964101#2 48964101#3 48964101#5 48964101#6 48964101#7 48964101#8 48964101#9 48964101#10 48876190#0 48876190#1 48876190#2 4374464#0 4374464#2 4374464#3 4374464#4 4374464#5 4374464#6 4374464#7 4374464#8 590562901 497239793#0 747852325 156161864#0 407994658#0 407994658#1 48963785#0 48963785#1 48963785#2 48963785#3 48963785#4 48963785#5 48963785#6 48963784#0 48963784#1 48963784#3 48963784#4 48963784#5 -50639243#4 -50639243#3 -50639243#2 -50639243#1 -50639243#0 662025862#0 662025862#1 662025861#1 662025861#2 662025861#3 662025861#6 749266346#3 749266346#4 749266346#5 749266346#6 662025867#0 662025867#1 662025867#2 662025867#3 662025867#4 662025867#5 -662025868 -681265637#1 -681265637#0 -681265641#4 -681265641#3 -681265641#2 -681265641#1 -681265641#0 -43654884#4 -43654884#3 -43654884#2 -43654884#1 -1058351234#1 -1058351234#0 -1058351233#5 -1058351233#4 -1058351233#2 -1058351233#1 -1058351233#0 -1058351238 803024108#0 803024108#2 803024108#3 803024108#4 689303712#1 904443331#0 904443331#2 750596645"/>
    </vehicle>
    <vehicle id="34" type="veh_passenger" depart="685.16" departLane="best">
        <route edges="5060471#0 -5060471#0 43654884#1 43654884#2 43654884#3 43654884#4 681265641#0 681265641#1 681265641#2 681265641#3 681265641#4 681265637#0 681265637#1 662025868 45105196#0 45105196#1 45105196#2 45105196#3 45105196#4 45105196#5 45105196#6 749266346#8 749266346#9 749266346#0 749266346#1 48876197#0 48876197#3 -48182870#0"/>
    </vehicle>
    <vehicle id="35" type="veh_passenger" depart="705.31" departLane="best">
        <route edges="662025867#0 662025867#1 45105196#6 749266346#8 749266346#9 749266346#0 749266346#1 48876197#0 48876197#3 48876197#4 48876197#5 50639243#0 50639243#1 50639243#2 50639243#3 50639243#4 -48963784#5 -48963784#4 -48963784#3 -48963784#1 -48963784#0 -48963785#6 -48963785#5 -48963785#4 -48963785#3 -48963785#2 -48963785#1 -48963785#0 407994657#0 407994657#1 497238811#0 749266325 590562903#1 -4374464#8 -4374464#7 -4374464#6 -4374464#5 -4374464#4 -4374464#3 -4374464#2 800169394#0 800169394#1 25446124#0 25446124#1 25446124#2 25446124#3 25446124#4 25446124#5 147359137#5 147359137#6 147359137#7 147359137#8 147359137#9 147359137#11 147359137#12"/>
    </vehicle>
    <vehicle id="36" type="veh_passenger" depart="725.46" departLane="best">
        <route edges="-30116390#4 -30116390#3 -30116390#2 -30116390#0 30116390#0 30116390#2 30116390#3 30116390#4 30116390#5 30116390#6 30116390#7 30116390#8 30116390#9 30116390#10 30116390#11 30116390#13 198889399#0 198889399#1 -30116400#2"/>
    </vehicle>
    <vehicle id="37" type="veh_passenger" depart="745.61" departLane="best">
        <route edges="22983452#9 22983452#10 22983452#12 22983452#13 22983452#14 22983452#15 -156709771#0 45105196#0 45105196#1 45105196#2 45105196#3 45105196#4 45105196#5 45105196#6 749266346#8 749266346#9 749266346#0 749266346#1 48876197#0 48876197#3 48876197#4 48876197#5 50639243#0 50639243#1 50639243#2 50639243#3 50639243#4 -48963784#5 -48963784#4 -48963784#3 -48963784#1 -48963784#0 -48963785#6 -48963785#5 -48963785#4 -48963785#3 -48963785#2 -48963785#1 -48963785#0 407994657#0 407994657#1 497238811#0 749266325 590562903#1 -4374464#8 -4374464#7 -4374464#6 -4374464#5 -4374464#4 -4374464#3 -4374464#2 -4374464#1 -48876190#3 -48876190#1 -48876190#0 -3498236"/>
    </vehicle>
    <vehicle id="39" type="veh_passenger" depart="785.91" departLane="best">
        <route edges="-681265641#0 -43654884#4 43654884#4 681265641#0 681265641#1 681265641#2 681265641#3 681265641#4 681265637#0 681265637#1 662025868 45105196#0 45105196#1 45105196#2 45105196#3 45105196#4 45105196#5 45105196#6 749266346#8 749266346#9 749266346#0 749266346#1 48876197#0 48876197#3 48876197#4 48876197#5 50639243#0 50639243#1 50639243#2 50639243#3 50639243#4 -48963784#5 -48963784#4 -48963784#3 -48963784#1 -48963784#0 -48963785#6 -48963785#5 -48963785#4 -48963785#3 -48963785#2 -48963785#1 -48963785#0 407994657#0 407994657#1 497238810#0 -26492401#3 -26492401#2 -26492401#1 -26492401#0"/>
    </vehicle>
    <vehicle id="40" type="veh_passenger" depart="806.07" departLane="best">
        <route edges="904437455 852535085#1 852535085#2 -852535085#2 -852535085#1 -852535085#0 -1062692978 -1040061566#1 -1040061566#0 -30134969#1 -30134969#0 -680975521#3 -680975521#2 -680975521#1 -680975521#0 -50639245#1 -50639245#0 -50639243#4 -50639243#3 -50639243#2 -50639243#1 -50639243#0 662025862#0 662025862#1 662025861#1 662025861#2 662025861#3 662025861#6 749266346#3 749266346#4 749266346#5 749266346#6 662025867#0 662025867#1 662025867#2 662025867#3 662025867#4 662025867#5 -662025868 -681265637#1 -681265637#0 -681265641#4 -681265641#3 -681265641#2 -681265641#1 -681265641#0 -43654884#4 -43654884#3 -43654884#2 -43654884#1 5060471#0 198725743"/>
    </vehicle>
    <vehicle id="41" type="veh_passenger" depart="826.22" departLane="best">
        <route edges="-196200605#5 -196200605#4 -196200605#3 -196200605#2 -196200605#1 -196200605#0 -155979495#7 -155979495#6 -155979495#5 -155979495#4 -155979495#3 -155979495#2 -155979495#1 -155979495#0"/>
    </vehicle>
    <vehicle id="42" type="veh_passenger" depart="846.37" departLane="best">
        <route edges="-198889402#1 -198889402#0 -3498237#1 -147359137#15 -147359137#12 -147359137#11 -147359137#9 -147359137#8 -147359137#7 -147359137#6 -147359137#5 -25446124#5 -25446124#4 -25446124#3 -25446124#2 -25446124#1 -25446124#0 -800169394#1 -800169394#0 4374464#2 4374464#3 4374464#4 4374464#5 4374464#6 4374464#7 4374464#8 590562901 497239793#0 747852325 156161864#0 407994658#0 407994658#1 48963785#0 48963785#1 48963785#2 48963785#3 48963785#4 48963785#5 48963785#6 48963784#0 48963784#1 48963784#3 48963784#4 48963784#5 -50639243#4 -50639243#3 -50639243#2 -50639243#1 -50639243#0 662025862#0 662025862#1 662025861#1 662025861#2 662025861#3 662025861#6 749266346#3 749266346#4 749266346#5 749266346#6 662025867#0 662025867#1 662025867#2 662025867#3 662025867#4 662025867#5 -662025868 -681265637#1 -681265637#0 -681265641#4 -681265641#3 -681265641#2 -25584729#14 -25584729#12 25584743#0 25584743#1"/>
    </vehicle>
    <vehicle id="43" type="veh_passenger" depart="866.52" departLane="best" departSpeed="max">
        <route edges="48182870#0 662025861#3 662025861#6 749266346#3 749266346#4 749266346#5 749266346#6 662025867#0 662025867#1 662025867#2 662025867#3 662025867#4 662025867#5 -662025868 -681265637#1 -681265637#0 -681265641#4 -681265641#3 -681265641#2 -681265641#1 -681265641#0 -43654884#4 -43654884#3 -43654884#2 -43654884#1 -1058351234#1 -1058351234#0 -1058351233#5 -1058351233#4 -1058351233#2 -1058351233#1 -1058351233#0 -1058351238 1058351238 1058351233#0 1058351233#1 1058351233#2 1058351233#4 1058351233#5 1058351234#0 1058351234#1"/>
    </vehicle>
    <vehicle id="44" type="veh_passenger" depart="886.67" departLane="best">
        <route edges="-148156075#1 -852535085#2 -852535085#1 -852535085#0 -1062692978 -1040061566#1 -1040061566#0 -30134969#1 -30134969#0 -680975521#3 -680975521#2 -680975521#1 -680975521#0 -50639245#1 -50639245#0 -50639243#4 -50639243#3 -50639243#2 -50639243#1 -50639243#0 662025862#0 662025862#1 662025861#1 662025861#2 662025861#3 662025861#6 749266346#3 749266346#4 749266346#5 749266346#6 662025867#0 662025867#1 662025867#2 662025867#3 662025867#4 662025867#5 -662025868 -681265637#1 -681265637#0 -681265641#4 -681265641#3 -681265641#2 -681265641#1 -681265641#0 -43654884#4 -43654884#3 -43654884#2 -43654884#1 -1058351234#1 -1058351234#0 -1058351233#5 -1058351233#4 -1058351233#2 -1058351233#1 -1058351233#0 -1058351238 803024108#0 803024108#2 803024108#3 803024108#4 689303712#1 689303712#2 -689303712#2"/>
    </vehicle>
    <vehicle id="45" type="veh_passenger" depart="906.82" departLane="best">
        <route edges="88050327#1 -25584743#2 -25584743#1 -25584743#0 25584729#12 25584729#14 681265641#2 681265641#3 681265641#4 681265637#0 681265637#1 662025868 45105196#0 45105196#1 45105196#2 45105196#3 45105196#4 45105196#5 45105196#6 749266346#8 749266346#9 749266346#0 749266346#1 48876197#0 48876197#3 48876197#4 48876197#5 50639243#0 50639243#1 50639243#2 50639243#3 50639243#4 -48963784#5 -48963784#4 -48963784#3 -48963784#1 -48963784#0 -48963785#6 -48963785#5 -48963785#4 -48963785#3 -48963785#2 -48963785#1 -48963785#0 407994657#0 407994657#1 497238811#0 749266325 590562903#1 -4374464#8 -4374464#7 -4374464#6 -4374464#5 -4374464#4 -4374464#3 -4374464#2 800169394#0 800169394#1 25446124#0 25446124#1 25446124#2 25446124#3 25446124#4 25446124#5 147359137#5 147359137#6 147359137#7 147359137#8 147359137#9 147359137#11 147359137#12 147359137#15 3498237#1 198889402#0 198889402#1 198889402#2"/>
    </vehicle>
    <vehicle id="46" type="veh_passenger" depart="926.98" departLane="best">
        <route edges="750596646#8 1058351238 1058351233#0 1058351233#1 1058351233#2 1058351233#4 1058351233#5 1058351234#0 1058351234#1 5060471#0 5060471#1 5060471#2 5060471#3 5060471#4 5060471#5 5060471#6 5060471#7 5060471#8 5060471#9 5060471#10"/>
    </vehicle>
    <vehicle id="47" type="veh_passenger" depart="947.13" departLane="best">
        <route edges="-1058351233#4 -1058351233#2 -1058351233#1 -1058351233#0 -1058351238 1058351238 1058351233#0 1058351233#1 1058351233#2 1058351233#4 1058351233#5 1058351234#0 1058351234#1 43654884#1 43654884#2 43654884#3 43654884#4 681265641#0 681265641#1 681265641#2 681265641#3 681265641#4 681265637#0 681265637#1 662025868 45105196#0 45105196#1 45105196#2 45105196#3 45105196#4 45105196#5 45105196#6 749266346#8 749266346#9 749266346#0 749266346#1 48876197#0 48876197#3 48876197#4 48876197#5 50639243#0 50639243#1 50639243#2 50639243#3 50639243#4 -48963784#5 -48963784#4 -48963784#3 -48963784#1 -48963784#0 -48963785#6 -48963785#5 -48963785#4 -48963785#3 -48963785#2 -48963785#1 -48963785#0 407994657#0 407994657#1 497238811#0 749266325 590562903#1 -4374464#8 -4374464#7 -4374464#6 -4374464#5 -4374464#4 -4374464#3 -4374464#2 800169394#0 800169394#1 25446124#0 25446124#1 25446124#2 25446124#3 25446124#4 25446124#5 25676160#0 25676160#1 25676160#2 25676160#3 25676160#4 25676160#5 25676160#6 25676160#7 25676160#8 25676160#9 25676160#10 25676160#11 25676160#12 3498237#6"/>
    </vehicle>
    <vehicle id="48" type="veh_passenger" depart="967.28" departLane="best" departSpeed="max">
        <route edges="26492401#0 26492401#1 26492401#2 26492401#3 -497238810#0 407994658#0 407994658#1 48963785#0 48963785#1 48963785#2 48963785#3 48963785#4 48963785#5 48963785#6 48963784#0 48963784#1 48963784#3 48963784#4 48963784#5 -50639243#4 -50639243#3 -50639243#2 -50639243#1 -50639243#0 662025862#0 662025862#1 662025861#1 662025861#2 662025861#3 662025861#6 749266346#3 749266346#4 749266346#5 749266346#6 662025867#0 662025867#1 662025867#2 662025867#3 662025867#4 662025867#5 156709771#0 22983452#16"/>
    </vehicle>
    <vehicle id="49" type="veh_passenger" depart="987.43" departLane="best">