<?xml version="1.0" encoding="UTF-8"?>

<!-- generated on 2022-05-31 16:27:10 by Eclipse SUMO polyconvert Version v1_13_0+0481-58bd772ae33
<configuration xmlns:xsi="http://www.w3.org/2001/XMLSchema-instance" xsi:noNamespaceSchemaLocation="http://sumo.dlr.de/xsd/polyconvertConfiguration.xsd">

    <input>
        <net-file value="osm.net.xml"/>
        <osm-files value="osm_bbox.osm.xml.gz"/>
        <osm.keep-full-type value="true"/>
        <type-file value="/home/wifi/code/sumo/data/typemap/osmPolyconvert.typ.xml"/>
    </input>

    <output>
        <output-file value="osm.poly.xml"/>
    </output>

    <report>
        <verbose value="true"/>
    </report>

</configuration>
-->

<additional xmlns:xsi="http://www.w3.org/2001/XMLSchema-instance" xsi:noNamespaceSchemaLocation="http://sumo.dlr.de/xsd/additional_file.xsd">
    <location netOffset="-343410.97,-6183484.62" convBoundary="-153.94,-38.74,2704.99,3417.31" origBoundary="12.500899,55.771835,12.545077,55.802583" projParameter="+proj=utm +zone=33 +ellps=WGS84 +datum=WGS84 +units=m +no_defs"/>

    <poly id="1014058596" type="building.yes" color="255,230,230" fill="1" layer="-1.00" shape="762.824377,1420.449569 785.272245,1412.581385 772.083671,1373.575125 749.459957,1381.271441 762.824377,1420.449569"/>
    <poly id="1019429177" type="landuse.meadow" color="194,194,130" fill="1" layer="-3.00" shape="1271.059355,622.859046 1271.629816,624.765820 1315.832722,622.037921 1299.750936,555.406889 1295.197949,546.245722 1288.883012,534.340347 1280.701277,527.470051 1271.848893,523.442104 1262.088806,521.596603 1271.059355,622.859046"/>
    <poly id="1019429179" type="landuse.construction" color="194,194,130" fill="1" layer="-3.00" shape="1287.160588,730.583777 1296.624649,727.148520 1272.552742,676.733101 1250.882278,626.243041 1271.059355,622.859046 1262.088806,521.596603 1247.077082,519.849829 1221.742182,522.282155 1213.336662,523.551995 1216.317297,551.762591 1226.617694,588.723399 1237.144300,623.938335 1249.417907,658.500399 1287.160588,730.583777"/>
    <poly id="1021993394" type="building.yes" color="255,230,230" fill="1" layer="-1.00" shape="2172.505475,1742.776391 2181.390944,1742.181881 2181.156633,1738.770346 2172.277821,1739.375759 2172.505475,1742.776391"/>
    <poly id="1021993397" type="building.yes" color="255,230,230" fill="1" layer="-1.00" shape="1691.118127,515.743704 1711.234302,511.160881 1706.742308,491.536998 1696.323057,493.913693 1698.583606,503.780810 1688.886615,505.986952 1691.118127,515.743704"/>
    <poly id="1021993398" type="building.construction" color="255,230,230" fill="1" layer="-1.00" shape="2422.420918,925.171278 2430.361568,921.257890 2430.882266,922.308807 2434.318935,920.616133 2431.004970,913.916342 2434.052957,912.415699 2427.872000,899.935978 2421.245485,903.201179 2424.863736,910.513979 2423.123652,911.366661 2424.307386,913.764209 2418.248646,916.753050 2422.420918,925.171278"/>
    <poly id="1021993399" type="building.yes" color="255,230,230" fill="1" layer="-1.00" shape="2437.388428,923.258655 2439.693545,922.229969 2438.547787,919.663975 2436.248544,920.681314 2437.388428,923.258655"/>
    <poly id="1025254077" type="leisure.park" color="207,245,201" fill="1" layer="-2.00" shape="777.262901,456.850477 777.263138,423.776410 779.153295,423.608348 779.159975,426.070003 784.401986,426.049063 784.395309,423.587408 787.693807,423.647327 787.674705,421.364354 790.425260,421.377091 790.467138,405.389983 817.319492,404.983892 822.336578,404.993345 822.686421,405.994520 821.681909,405.997124 821.728133,448.605167 833.606973,448.591354 833.369810,458.436293 799.878094,458.055573 790.280306,458.121337 783.759692,457.853942 780.313572,457.353731 777.262901,456.850477"/>
    <poly id="1025254078" type="leisure.park" color="207,245,201" fill="1" layer="-2.00" shape="836.125188,458.058992 850.638069,457.961911 856.316414,458.203905 862.514757,458.939693 879.966964,461.845326 882.721479,461.969376 885.895573,461.187205 888.867768,459.677047 890.733762,458.485039 890.865828,456.564262 888.781582,456.572137 888.757176,451.337314 891.142814,451.329776 891.025718,448.938920 880.270928,448.956840 880.181848,405.837932 880.790905,405.838378 880.592702,405.388752 877.279371,405.440691 856.202364,405.639341 852.241106,404.957025 849.160988,405.034043 848.977302,405.864973 849.019521,421.927033 842.848250,421.947796 842.807009,424.299770 842.763089,426.752098 837.913056,426.848031 837.843703,424.388624 835.914611,424.346400 836.125188,458.058992"/>
    <poly id="1025254079" type="building.yes" color="255,230,230" fill="1" layer="-1.00" shape="891.142814,451.329776 888.757176,451.337314 888.781582,456.572137 890.865828,456.564262 891.568937,456.561338 891.550805,451.326290 891.142814,451.329776"/>
    <poly id="1025254083" type="building.yes" color="255,230,230" fill="1" layer="-1.00" shape="946.711023,451.376796 946.765490,453.948133 941.608230,454.054960 941.560030,451.483399 946.711023,451.376796"/>
    <poly id="1025443065" type="leisure.park" color="207,245,201" fill="1" layer="-2.00" shape="518.966080,327.121125 519.067018,454.000172 519.074321,463.814102 519.708856,484.968124 512.021318,486.124407 414.396834,473.291385 414.795812,450.685431 416.282733,365.958005 416.194458,340.450936 422.396300,340.227958 421.484951,327.104570 445.880760,327.163285 445.896008,334.748968 445.809657,335.665539 440.579146,334.962378 431.155949,335.702173 432.745625,362.280384 431.392063,362.529563 432.703972,388.716727 431.201792,388.848711 432.837114,415.124508 431.396850,415.231987 434.450527,463.669640 440.175494,463.285585 440.314079,464.695363 500.090801,465.131231 500.102772,456.029556 505.438149,456.160880 507.870362,414.989774 506.342981,414.944401 507.719788,388.783158 506.292204,388.544821 507.652243,361.916311 506.401957,361.894399 507.883689,335.506593 498.014779,335.025737 498.435944,329.797161 499.447659,327.198644 518.966080,327.121125"/>
    <poly id="1040061564" type="landuse.construction" color="194,194,130" fill="1" layer="-3.00" shape="1160.483073,882.472091 1154.982741,866.839355 935.351028,943.761197 1029.785148,1206.829838 1036.885860,1204.046742 955.174523,965.241178 1070.055484,921.434628 1067.777205,914.966032 1160.483073,882.472091"/>
    <poly id="1040061565" type="landuse.construction" color="194,194,130" fill="1" layer="-3.00" shape="1240.202560,1110.112213 1236.579339,1099.380575 1078.339388,1152.756075 1081.750918,1164.052170 1240.202560,1110.112213"/>
    <poly id="1041985024" type="landuse.construction" color="194,194,130" fill="1" layer="-3.00" shape="1138.336459,813.607859 1163.169921,865.978212 1169.663331,872.697032 1177.558997,872.637270 1206.778885,862.334591 1218.054830,860.594398 1227.479199,861.850226 1255.770006,870.852876 1262.461474,849.938185 1138.336459,813.607859"/>
    <poly id="1042012847" type="amenity.parking" color="184,184,179" fill="1" layer="-1.00" shape="1278.721118,1018.970372 1295.217915,1013.490067 1287.890616,991.517175 1271.393741,996.997506 1278.721118,1018.970372"/>
    <poly id="1042012848" type="amenity.parking" color="184,184,179" fill="1" layer="-1.00" shape="1259.709344,1018.725751 1275.752307,1013.194765 1266.214806,986.299206 1261.757211,987.695152 1259.396247,1003.653735 1255.162097,1005.153094 1259.709344,1018.725751"/>
    <poly id="1042220361" type="building.service" color="255,230,230" fill="1" layer="-1.00" shape="755.957592,1361.521281 765.827268,1357.891978 762.899611,1349.954092 753.023649,1353.583626 755.957592,1361.521281"/>
    <poly id="1042243846" type="landuse.forest" color="140,196,107" fill="1" layer="-3.00" shape="1183.406832,912.018688 1189.873791,932.562913 1197.585529,930.348652 1190.381234,909.374071 1183.406832,912.018688"/>
    <poly id="1042243847" type="landuse.forest" color="140,196,107" fill="1" layer="-3.00" shape="1187.592283,906.700070 1183.173003,891.273696 1178.187079,898.960311 1181.155998,908.066643 1187.592283,906.700070"/>
    <poly id="1042243848" type="amenity.parking" color="184,184,179" fill="1" layer="-1.00" shape="1158.642134,926.985605 1172.200942,922.378641 1173.800105,927.066947 1160.234642,931.663005 1158.642134,926.985605"/>
    <poly id="1043657951" type="natural.tree_row" color="140,196,107" fill="0" layer="-4.00" shape="1155.241610,828.464773 1197.783799,840.967339"/>
    <poly id="1043657952" type="natural.tree_row" color="140,196,107" fill="0" layer="-4.00" shape="1321.000653,889.162162 1230.776971,859.092134"/>
    <poly id="1043657953" type="landuse.forest" color="140,196,107" fill="1" layer="-3.00" shape="1313.803949,862.238516 1324.701882,865.201945 1309.282792,817.963765 1304.318574,806.600496 1290.189424,826.522275 1272.327494,838.089120 1255.942415,842.674302 1249.677289,844.792147 1313.803949,862.238516"/>
    <poly id="1043657954" type="landuse.forest" color="140,196,107" fill="1" layer="-3.00" shape="1114.235592,831.347324 1129.226272,872.696184 1152.372596,865.128134 1138.797548,839.469011 1114.235592,831.347324"/>
    <poly id="1051045465" type="landuse.construction" color="194,194,130" fill="1" layer="-3.00" shape="1290.810481,737.493576 1302.900204,732.516280 1323.820423,788.391583 1330.148339,792.944305 1352.673355,852.984305 1344.671027,854.451167 1338.117604,852.368371 1331.635290,827.513432 1319.110995,796.446882 1290.810481,737.493576"/>
    <poly id="1052260723" type="landuse.grass" color="194,194,130" fill="1" layer="-3.00" shape="1466.607399,595.640765 1449.948835,528.617727 1441.493251,530.947185 1439.393779,527.011884 1448.753184,519.225101 1460.139349,530.916139 1468.246697,529.735405 1485.068705,544.028435 1494.266059,544.713714 1498.037140,548.166040 1505.617928,540.855061 1507.645603,543.133139 1509.907124,541.058384 1513.463040,545.342743 1523.156899,555.011233 1527.552240,559.243354 1518.104923,569.316743 1507.751326,578.096890 1498.943746,583.401969 1488.978368,588.458779 1477.273683,592.630855 1466.607399,595.640765"/>
    <poly id="1052260724" type="natural.water" color="181,209,209" fill="1" layer="-4.00" shape="1474.803991,584.832143 1485.188793,582.378152 1497.749892,576.693938 1506.955274,570.572595 1508.829117,568.366865 1507.846721,566.174002 1505.711468,565.102854 1496.494360,565.621347 1490.696162,565.884093 1488.518791,563.633648 1484.386342,558.501000 1483.623329,554.540234 1468.799961,552.785979 1464.312396,548.434671 1462.663740,548.682929 1462.213098,549.601341 1463.294239,554.909787 1472.397916,583.737264 1474.803991,584.832143"/>
    <poly id="1052260725" type="natural.water" color="181,209,209" fill="1" layer="-4.00" shape="1494.063335,557.498193 1497.594786,558.987348 1501.614506,559.556754 1507.668072,559.763912 1511.127107,560.631840 1514.218452,560.521464 1515.569158,558.434673 1515.968767,554.855701 1513.613419,551.664725 1511.086836,550.184237 1507.791168,550.023417 1505.575557,550.570395 1503.266971,552.557715 1501.070517,553.816952 1498.636602,553.525111 1494.838469,552.479927 1493.198230,550.678167 1491.629919,549.308288 1490.170258,549.750301 1489.125364,551.258055 1490.024045,553.743537 1491.590574,556.294287 1494.063335,557.498193"/>
    <poly id="1052260726" type="landuse.grass" color="194,194,130" fill="1" layer="-3.00" shape="1638.545402,600.141707 1674.225526,592.396773 1672.624446,585.881468 1672.580398,584.646535 1652.019592,492.096244 1635.206136,495.982248 1627.343809,498.401567 1618.607587,501.843514 1608.339640,507.579211 1604.438591,510.336236 1605.941159,511.975853 1616.817155,523.106220 1621.128183,523.041522 1627.164229,546.865607 1635.579189,587.392333 1638.545402,600.141707"/>
    <poly id="1052260727" type="landuse.grass" color="194,194,130" fill="1" layer="-3.00" shape="1648.062698,475.160263 1634.880165,477.869611 1626.087772,480.266414 1614.416571,484.860211 1609.523316,469.840273 1606.269534,455.898088 1604.328469,436.339220 1599.233955,416.736921 1594.983570,404.779749 1592.172017,399.889496 1591.760676,391.705365 1589.542052,379.853930 1583.929795,371.610321 1580.497581,367.978729 1579.603980,363.699559 1582.077509,362.987465 1580.552360,356.669991 1579.239164,351.893369 1568.404356,341.051234 1575.441757,333.982592 1575.032203,330.599603 1574.869522,327.976442 1599.276005,328.174915 1599.246253,329.980606 1615.455979,330.449373 1630.730119,398.324373 1648.062698,475.160263"/>
    <poly id="1053852902" type="amenity.parking" color="184,184,179" fill="1" layer="-1.00" shape="1735.116794,1527.651917 1743.075817,1559.149606 1748.022796,1557.937191 1748.020415,1558.750473 1735.960077,1562.032352 1734.934336,1561.255738 1739.888373,1560.065341 1731.941787,1528.388977 1735.116794,1527.651917"/>
    <poly id="1053852902#1" type="landuse.grass" color="194,194,130" fill="1" layer="-3.00" shape="1735.116794,1527.651917 1743.075817,1559.149606 1748.022796,1557.937191 1748.020415,1558.750473 1735.960077,1562.032352 1734.934336,1561.255738 1739.888373,1560.065341 1731.941787,1528.388977 1735.116794,1527.651917"/>
    <poly id="1053852903" type="amenity.bicycle_parking" color="237,199,199" fill="1" layer="-1.00" shape="1761.495290,1532.470428 1769.026038,1530.486383 1765.482423,1517.189416 1757.873647,1519.098269 1761.495290,1532.470428"/>
    <poly id="1053852904" type="amenity.bicycle_parking" color="237,199,199" fill="1" layer="-1.00" shape="1757.292458,1516.178116 1764.817361,1514.205415 1761.279993,1500.908227 1753.671190,1502.817087 1757.292458,1516.178116"/>
    <poly id="1053852906" type="landuse.commercial" color="209,209,204" fill="1" layer="-3.00" shape="1861.989370,1628.432228 1817.860300,1437.299727 1830.770268,1408.355417 1863.640397,1386.586745 1920.682639,1361.239176 1952.970024,1347.234044 1966.077750,1337.031201 1961.802281,1315.683911 1952.579487,1269.637948 1947.596210,1246.221617 1917.596415,1232.652578 1822.758189,1257.531272 1844.231487,1344.145580 1785.063720,1351.423397 1732.227226,1326.416203 1724.729303,1325.458244 1716.430014,1327.904205 1714.709813,1320.858437 1683.040892,1328.961544 1685.808552,1339.501218 1666.263004,1344.309080 1674.818577,1376.320098 1633.891349,1388.474569 1687.775376,1597.504428 1747.818199,1593.914552 1861.989370,1628.432228"/>
    <poly id="1054199504" type="amenity.parking" color="184,184,179" fill="1" layer="-1.00" shape="899.306510,1518.329531 905.181125,1516.381078 886.417666,1460.162915 880.549249,1462.111168 899.306510,1518.329531"/>
    <poly id="1054199519" type="building.yes" color="255,230,230" fill="1" layer="-1.00" shape="1652.146845,1400.823161 1650.354172,1393.156176 1646.326141,1394.090829 1648.112552,1401.758036 1652.146845,1400.823161"/>
    <poly id="1054666123" type="amenity.parking" color="184,184,179" fill="1" layer="-1.00" shape="1225.272211,1288.147189 1235.584041,1284.581140 1226.283382,1257.632640 1215.645182,1261.377482 1225.272211,1288.147189"/>
    <poly id="1054666124" type="amenity.parking" color="184,184,179" fill="1" layer="-1.00" shape="1212.247694,1250.637788 1222.569459,1247.171615 1208.217863,1206.612851 1197.984181,1210.087041 1212.247694,1250.637788"/>
    <poly id="1054666125" type="amenity.parking" color="184,184,179" fill="1" layer="-1.00" shape="1194.852335,1200.106494 1204.932783,1196.559803 1189.820159,1152.285359 1179.613825,1155.825447 1194.852335,1200.106494"/>
    <poly id="1058197189" type="natural.water" color="181,209,209" fill="1" layer="-4.00" shape="1636.647889,540.266756 1636.934173,536.324234 1637.545172,531.100204 1637.851378,526.132120 1637.763425,524.018718 1637.478626,522.547300 1635.334336,520.518399 1632.467748,520.241918 1628.094967,520.687558 1625.850283,522.004148 1624.720811,524.662272 1625.093498,528.948894 1625.663102,531.891728 1626.374787,535.297360 1626.980345,538.016117 1627.600266,540.433591 1628.520217,542.461611 1629.546127,543.940006 1631.110505,545.376911 1633.182074,546.071643 1635.004246,545.583326 1636.033787,542.939910 1636.647889,540.266756"/>
    <poly id="1058197190" type="natural.water" color="181,209,209" fill="1" layer="-4.00" shape="1635.526260,574.293951 1636.558444,578.412229 1637.575464,581.929505 1638.659793,586.101622 1639.766503,590.373198 1640.514046,593.376523 1641.561925,594.063219 1643.383050,594.778028 1645.893838,594.409965 1650.036840,592.981104 1656.714129,592.018829 1661.095889,590.770837 1662.859945,589.181776 1663.042662,587.615702 1662.286481,586.305914 1660.514885,585.043486 1657.937577,583.898916 1655.457180,582.127069 1652.733027,579.506163 1650.518840,576.220965 1646.797511,569.759025 1644.121996,565.509994 1641.646027,563.158733 1639.366664,561.390862 1637.985649,560.693771 1636.183883,561.225918 1634.867725,562.698753 1634.221559,564.648972 1634.252528,567.276833 1634.889515,571.052740 1635.526260,574.293951"/>
    <poly id="1058197192" type="natural.water" color="181,209,209" fill="1" layer="-4.00" shape="1442.478608,529.530663 1441.146435,527.038395 1447.990113,521.591696 1449.554060,527.584695 1442.478608,529.530663"/>
    <poly id="1058197193" type="natural.water" color="181,209,209" fill="1" layer="-4.00" shape="1421.881326,585.664251 1416.476400,563.544500 1416.588622,557.547324 1417.515255,550.796971 1419.732388,546.250737 1429.199723,583.843242 1421.881326,585.664251"/>
    <poly id="1058197202" type="landuse.grass" color="194,194,130" fill="1" layer="-3.00" shape="1385.496584,548.910996 1377.791994,508.125312 1369.110379,475.317172 1370.823879,474.598695 1380.604955,481.423146 1390.767156,485.560467 1397.820527,487.915137 1408.775425,489.462041 1420.246615,488.940821 1429.420609,486.507685 1442.045302,479.785057 1451.278351,471.445813 1457.126292,460.442567 1459.128626,451.637521 1459.133290,441.923531 1456.316380,431.964984 1448.600887,402.987686 1447.067793,386.433141 1435.286040,332.213706 1436.665531,331.986196 1450.519280,389.195048 1464.104586,442.236129 1466.319195,450.801447 1466.498206,457.044429 1464.448180,464.514409 1460.802075,471.595806 1454.234457,479.149164 1447.071958,485.164223 1434.489224,492.709676 1417.978613,504.717701 1405.661177,515.116673 1395.954252,526.881708 1390.474341,535.877891 1385.496584,548.910996"/>
    <poly id="1058197203" type="natural.scrub" color="140,196,107" fill="1" layer="-4.00" shape="1458.383094,866.685222 1430.031723,750.185162 1398.732014,628.343259 1395.525417,615.914514 1392.899749,603.754645 1391.327990,591.746493 1390.902851,577.213212 1391.863653,561.405040 1396.007421,546.819902 1402.678561,533.559211 1413.770643,518.915215 1437.421414,501.149092 1442.129866,497.093145 1443.460277,500.766286 1445.744014,510.387399 1447.402510,516.566396 1432.228377,526.967073 1424.712283,534.153336 1419.813798,541.324075 1415.827917,550.489644 1414.786617,559.126706 1414.940045,563.421154 1424.818606,603.561093 1425.150416,605.643505 1424.183052,606.157072 1456.199994,733.331707 1458.304138,735.818682 1462.286757,752.051805 1455.455416,755.548612 1451.831200,757.961712 1449.432368,760.230785 1448.457316,764.922016 1449.050034,770.793753 1469.041866,850.653198 1469.701583,855.765043 1467.863482,860.197464 1465.052558,864.285885 1458.383094,866.685222"/>
    <poly id="1058197204" type="landuse.grass" color="194,194,130" fill="1" layer="-3.00" shape="1574.869522,327.976442 1450.949179,328.100687 1447.366312,331.681963 1445.549764,331.802543 1445.220483,334.888863 1464.919045,414.937042 1474.490457,454.219149 1476.270089,465.373277 1475.851220,471.225441 1472.695952,476.228454 1468.530086,479.128738 1462.436721,482.732830 1442.129866,497.093145 1443.460277,500.766286 1450.347270,497.234075 1460.027918,491.407575 1472.381169,482.533629 1481.578577,474.953225 1484.399732,471.142960 1484.733240,466.240720 1481.068574,453.638905 1483.992503,453.233719 1459.367014,353.710996 1478.459936,331.005957 1575.032203,330.599603 1574.869522,327.976442"/>
    <poly id="1058197205" type="landuse.forest" color="140,196,107" fill="1" layer="-3.00" shape="1335.446478,330.278065 1325.750729,330.067641 1330.371751,347.803998 1332.959140,351.331925 1351.693815,419.461231 1361.533698,442.157645 1372.941207,459.528969 1384.622902,468.234962 1398.409769,473.479292 1410.447090,475.622491 1421.097532,475.676444 1418.982939,462.707384 1392.909856,460.831714 1378.615203,452.096533 1367.472247,437.032802 1359.125071,410.952253 1335.446478,330.278065"/>
    <poly id="1058197206" type="landuse.grass" color="194,194,130" fill="1" layer="-3.00" shape="1739.875174,628.220211 1709.197290,640.843647 1705.710679,638.494973 1703.113745,627.291950 1703.547133,617.261925 1698.848263,595.885358 1739.875174,628.220211"/>
    <poly id="1058197209" type="amenity.parking" color="184,184,179" fill="1" layer="-1.00" shape="1798.107827,623.493188 1796.688452,619.956802 1766.847591,631.937306 1766.010748,629.772623 1798.428852,616.998462 1842.529305,599.942844 1843.944035,603.702202 1841.103431,606.443509 1798.107827,623.493188"/>
    <poly id="1058351240" type="amenity.parking" color="184,184,179" fill="1" layer="-1.00" shape="763.285265,720.540884 778.741065,725.400317 799.101243,719.612465 801.153312,716.085518 759.576694,701.346383 758.566266,705.381827 763.285265,720.540884"/>
    <poly id="1058351246" type="amenity.parking" color="184,184,179" fill="1" layer="-1.00" shape="963.465900,731.476510 960.875808,737.863296 1018.375987,771.617600 1021.917159,766.366458 963.465900,731.476510"/>
    <poly id="1058351247" type="amenity.parking" color="184,184,179" fill="1" layer="-1.00" shape="1027.090753,779.871922 1036.625915,783.161958 1035.507736,774.379310 1025.940331,768.962734 1027.090753,779.871922"/>
    <poly id="1058351248" type="leisure.park" color="207,245,201" fill="1" layer="-2.00" shape="938.038373,404.020477 937.554360,406.633389 937.090611,454.840677 938.370901,458.504343 942.976733,460.355592 946.262255,460.404955 949.076873,458.176401 949.194340,452.167853 953.574947,452.289380 953.612981,450.371976 960.783338,450.549506 960.020319,459.744878 958.074701,468.002325 954.845578,475.659656 949.279302,485.027145 935.868360,504.657001 927.487489,518.002033 922.933030,528.269041 921.010651,537.171785 920.612227,544.449202 921.231847,554.029485 921.326138,558.236942 919.427860,561.680332 915.370026,563.028867 884.332780,566.814966 883.236815,563.389782 881.916476,553.355610 853.101327,557.129106 849.380354,557.541023 847.313893,556.467723 841.781892,556.276198 838.559758,557.817635 836.618169,560.226616 835.685274,563.100717 836.161530,565.701490 838.960310,568.987622 841.113531,569.679054 841.094485,570.548641 831.327658,568.169634 826.329409,566.054084 821.034106,563.358784 815.472530,559.191447 807.360445,552.709398 799.485815,544.971190 790.513531,537.439464 786.037499,534.480880 781.456290,531.915967 775.374882,530.062124 769.353211,528.473501 763.749847,527.694224 757.416316,528.088551 750.337623,528.888376 750.077871,526.023627 751.352671,525.855350 749.930081,514.554933 723.377778,517.880477 723.868665,521.761794 722.748631,521.868826 723.820236,532.134691 714.094634,532.483713 709.816694,532.247348 709.582579,519.600928 672.230624,493.704767 667.097560,497.108439 661.542219,488.574256 658.358468,483.664496 654.522287,478.945259 650.890555,475.198988 646.113010,471.716654 641.555494,469.641181 634.619323,466.893612 629.176886,466.053026 621.868072,465.168066 615.988683,464.398886 612.677577,463.637742 609.671647,462.108134 604.641696,457.543205 610.864709,451.270805 630.595331,434.387293 636.083445,440.695893 637.773051,440.713207 663.499935,440.792156 663.506209,439.042980 666.005531,439.053517 670.271787,438.087163 672.880546,449.367265 670.407101,452.875976 670.140198,460.482909 674.433191,460.261965 700.196773,460.317529 700.196109,458.724560 704.717361,458.740530 722.230139,458.780433 727.887573,458.789074 727.907494,456.894593 730.607065,456.886841 730.620249,454.279653 730.618915,452.842667 735.350462,452.594907 735.328983,461.095348 743.047059,460.963230 743.282355,450.371976 758.184114,456.387524 767.650537,459.835440 776.650231,462.174998 788.821883,463.498472 788.653666,465.810444 786.272885,467.878727 785.503029,469.521613 785.732656,471.897293 787.060096,473.721163 789.204992,474.178935 791.545643,474.317772 791.552204,476.601195 817.103534,476.520241 817.097667,475.306214 821.919086,475.289260 844.934294,475.221444 844.927811,473.639826 847.626969,473.621022 847.516502,478.069758 848.596244,478.064462 848.444876,479.796557 845.440382,481.630955 844.482040,483.971255 844.649154,486.705651 846.301439,488.484470 848.344905,489.090725 850.138806,489.215779 850.122935,491.399746 875.708705,491.407015 875.710099,489.869675 880.412757,489.868182 903.455347,489.866529 903.459941,488.418192 906.266087,488.406728 909.990133,488.429205 914.531240,488.299862 916.879485,487.424774 918.192136,485.684482 918.863664,483.399039 918.445773,480.673630 917.577233,478.688459 915.827405,478.216465 913.197229,478.232755 910.021369,479.315745 908.780516,479.906069 907.881028,479.860331 907.867998,476.518864 883.553711,476.777734 883.512232,475.620684 886.446548,474.980785 887.598083,473.825527 889.464604,471.597499 890.063842,469.047288 890.141066,467.173036 890.645643,466.185788 892.630336,464.276580 896.278438,460.603360 897.911072,458.506258 899.389473,455.434385 899.855510,452.320821 900.154718,445.603948 899.908227,413.853268 900.375907,411.486011 900.385435,404.044296 938.038373,404.020477"/>
    <poly id="1058351249" type="landuse.forest" color="140,196,107" fill="1" layer="-3.00" shape="667.097560,497.108439 675.639096,511.172178 684.989855,522.243694 692.618912,529.255295 699.589257,531.734368 709.816694,532.247348 709.582579,519.600928 672.230624,493.704767 667.097560,497.108439"/>
    <poly id="1058351250" type="leisure.park" color="207,245,201" fill="1" layer="-2.00" shape="931.110954,568.301953 1006.487405,557.335520 1030.852737,549.400186 1031.991243,548.056058 1033.069163,544.319050 1033.782830,538.300297 1036.098371,479.009521 1038.985326,478.449400 1038.922942,456.896193 1021.799110,457.019322 1013.394057,453.922739 1013.519814,427.283055 1017.449829,423.588707 1017.713943,405.543968 977.436123,405.906212 969.299704,403.301374 968.260097,404.252082 968.802070,451.799488 968.445876,459.732628 965.608265,471.308263 963.015804,477.984756 959.599297,484.267466 940.844715,512.644125 936.951564,518.063895 932.756678,526.101190 930.215595,533.332855 929.223596,541.567284 929.223136,547.861276 931.110954,568.301953"/>
    <poly id="1058351251" type="leisure.park" color="207,245,201" fill="1" layer="-2.00" shape="1035.738783,546.807865 1039.557639,481.982489 1062.521481,476.626275 1069.138566,476.433900 1077.953066,471.328204 1086.274583,471.743217 1090.305270,469.983649 1091.470482,467.981337 1092.070439,465.798745 1099.604450,465.963483 1109.348774,463.152776 1115.621796,463.696873 1117.399866,463.555250 1118.872162,462.589091 1120.116321,460.862455 1120.591280,458.695482 1119.754432,437.069759 1120.488992,436.542177 1121.994647,436.332329 1122.121592,441.808543 1133.620883,441.541780 1141.325299,519.623042 1121.694424,521.439641 1111.007546,523.348328 1088.961501,528.905372 1075.134854,533.254768 1042.056229,545.088887 1036.729628,546.950615 1035.738783,546.807865"/>
    <poly id="1058351253" type="landuse.grass" color="194,194,130" fill="1" layer="-3.00" shape="955.486564,729.735001 963.465900,731.476510 960.875808,737.863296 1018.375987,771.617600 1021.917159,766.366458 1025.940331,768.962734 1027.090753,779.871922 1036.625915,783.161958 1037.214865,787.685890 998.412406,776.732970 995.916494,774.884067 987.479525,768.602731 978.562817,760.322299 971.856048,753.444289 964.970252,745.425306 959.641261,737.751578 955.486564,729.735001"/>
    <poly id="1058351255" type="leisure.park" color="207,245,201" fill="1" layer="-2.00" shape="830.044915,574.944070 842.966285,577.399330 846.950651,577.679769 850.949215,577.480692 864.230880,575.801374 881.304482,573.763358 882.187230,578.421561 912.778749,573.938473 914.391215,569.703260 917.008068,569.141596 919.209115,569.240943 921.656095,570.946746 922.591201,572.862693 923.412771,580.720212 919.296447,580.611530 917.237343,580.618493 917.322548,585.973674 916.095354,586.418691 905.311040,586.303948 904.837150,630.534736 904.107850,644.519028 886.739908,684.398239 884.172375,689.135578 878.279021,689.892713 849.630096,693.548924 846.784689,693.862613 846.311818,689.780126 845.979415,683.486923 846.039528,678.159946 841.003601,678.841825 812.369556,682.564584 812.984739,687.288073 810.024868,687.561333 809.619794,682.919427 808.003381,667.960956 817.522382,666.761774 819.134429,666.369763 818.484879,662.438432 817.340311,651.707299 816.218829,651.948039 788.168842,655.505183 789.462028,665.651711 789.626945,666.748635 785.927675,667.237812 784.134473,667.480377 783.053580,667.452313 781.885470,667.093185 781.069979,666.587730 780.390608,665.676358 779.910059,664.356821 779.941915,663.319677 780.966345,659.673631 784.090298,653.122758 788.897321,643.258690 792.357344,638.199642 793.571397,636.863876 794.666773,636.245314 795.774007,635.782284 797.708648,635.456673 799.560237,635.791290 801.469801,636.691957 801.943098,635.884055 803.609188,632.972506 802.932725,632.317242 801.962123,631.338335 801.332571,629.890463 800.894836,628.714206 800.634269,627.576153 800.807043,626.266599 801.361284,624.564609 809.191347,612.508994 815.594419,600.927888 817.366449,596.943125 821.294445,586.898972 823.331902,581.211445 824.082315,577.976272 825.284825,576.317876 826.794929,575.183159 828.413795,574.980286 830.044915,574.944070"/>
    <poly id="1058351256" type="leisure.playground" color="207,245,201" fill="1" layer="-2.00" shape="787.221061,614.032287 798.595161,619.038230 810.062755,599.343920 812.255355,594.831640 812.807896,592.906917 812.233409,591.768983 810.634045,590.589829 801.803926,584.567999 792.179679,583.888355 791.390687,596.549188 788.971216,608.388466 787.221061,614.032287"/>
    <poly id="1058361758" type="landuse.depot" color="194,194,130" fill="1" layer="-3.00" shape="1013.244494,1239.092815 949.883804,1264.277896 932.933826,1213.998884 995.668773,1189.727195 1005.683542,1218.866512 1013.244494,1239.092815"/>